Circuit: * Podstawowy test sumatora 4-bitowego - test dodawania A+B=S przy 1 MHz.

C41: both pins shorted together -- ignoring.
Vshort: both pins shorted together -- ignoring.
Ignoring BSIM parameter XL
Ignoring BSIM parameter XW
Ignoring BSIM parameter XL
Ignoring BSIM parameter XW
WARNING: Less than two connections to node A1.  This node is used by VA1.
Warning: Pd = 0 is less than W.
Warning: Ps = 0 is less than W.
Warning: Pd = 0 is less than W.
Warning: Ps = 0 is less than W.
Warning: Pd = 0 is less than W.
Warning: Pd = 0 is less than W.
Warning: Ps = 0 is less than W.
Warning: Pd = 0 is less than W.
Warning: Ps = 0 is less than W.
Direct Newton iteration failed to find .op point.  (Use ".option noopiter" to skip.)
Starting Gmin stepping
Gmin = 10
Gmin = 1.07374
Gmin = 0.115292
Gmin = 0.0123794
Gmin = 0.00132923
Gmin = 0.000142725
Gmin = 1.5325e-005
Gmin = 1.6455e-006
Gmin = 1.76685e-007
Gmin = 1.89714e-008
Gmin = 2.03704e-009
Gmin = 2.18725e-010
Gmin = 2.34854e-011
Gmin = 2.52173e-012
Gmin = 2.70769e-013
Gmin = 0
Gmin stepping succeeded in finding the operating point.


Date: Sun Feb 07 18:35:45 2021
Total elapsed time: 0.311 seconds.

tnom = 27
temp = 27
method = modified trap
totiter = 3783
traniter = 3377
tranpoints = 1221
accept = 1175
rejected = 46
matrix size = 72
fillins = 8
solver = Normal
Thread vector: 61.8/17.3[13] 19.4/4.6[13] 5.7/2.0[13] 0.3/1.3[1]  2592/500
Matrix Compiler1: 6.79 KB object code size  1.8/0.9/[0.5]
Matrix Compiler2: 8.67 KB object code size  1.0/1.5/[0.5]

