Circuit: *Test symulacyjny dla sumatora 1-bitowego

C12: both pins shorted together -- ignoring.
Vshort: both pins shorted together -- ignoring.
Ignoring BSIM parameter XL
Ignoring BSIM parameter XW
Ignoring BSIM parameter XL
Ignoring BSIM parameter XW
WARNING: Less than two connections to node IN1.  This node is used by VIN1.
Warning: Pd = 0 is less than W.
Warning: Pd = 0 is less than W.
Warning: Pd = 0 is less than W.
Warning: Ps = 0 is less than W.
Direct Newton iteration for .op point succeeded.

Date: Sun Feb 07 18:44:40 2021
Total elapsed time: 0.141 seconds.

tnom = 27
temp = 27
method = modified trap
totiter = 2801
traniter = 2770
tranpoints = 1280
accept = 1211
rejected = 69
matrix size = 22
fillins = 12
solver = Normal
Thread vector: 18.7/6.5[3] 3.2/1.5[3] 0.6/0.5[3] 0.1/0.3[1]  2592/500
Matrix Compiler1: 2.31 KB object code size  0.4/0.2/[0.2]
Matrix Compiler2: 2.57 KB object code size  0.2/0.3/[0.2]

