Circuit: * Test szybkosci sumatora 4-bitowego - test dodawania A+B=S przy 300 MHz

C41: both pins shorted together -- ignoring.
Vshort: both pins shorted together -- ignoring.
Ignoring BSIM parameter XL
Ignoring BSIM parameter XW
Ignoring BSIM parameter XL
Ignoring BSIM parameter XW
WARNING: Less than two connections to node A1.  This node is used by RA1.
Warning: Pd = 0 is less than W.
Warning: Ps = 0 is less than W.
Warning: Pd = 0 is less than W.
Warning: Ps = 0 is less than W.
Warning: Pd = 0 is less than W.
Warning: Pd = 0 is less than W.
Warning: Ps = 0 is less than W.
Warning: Pd = 0 is less than W.
Warning: Ps = 0 is less than W.
Direct Newton iteration failed to find .op point.  (Use ".option noopiter" to skip.)
Starting Gmin stepping
Gmin = 10
Gmin = 1.07374
Gmin = 0.115292
Gmin = 0.0123794
Gmin = 0.00132923
Gmin = 0.000142725
Gmin = 1.5325e-005
Gmin = 1.6455e-006
Gmin = 1.76685e-007
Gmin = 1.89714e-008
Gmin = 2.03704e-009
Gmin = 2.18725e-010
Gmin = 2.34854e-011
Gmin = 2.52173e-012
Gmin = 2.70769e-013
Gmin = 0
Gmin stepping succeeded in finding the operating point.


Date: Sun Feb 07 18:42:22 2021
Total elapsed time: 3.412 seconds.

tnom = 27
temp = 27
method = modified trap
totiter = 2613
traniter = 2191
tranpoints = 1085
accept = 1074
rejected = 11
matrix size = 81
fillins = 54
solver = Normal
Thread vector: 144.5/21.9[16] 24.7/7.8[16] 10.1/3.0[13] 0.3/1.6[1]  2592/500
Matrix Compiler1: 13.17 KB object code size  3.3/1.5/[0.9]
Matrix Compiler2: 10.95 KB object code size  3.0/8.9/[0.6]

