Circuit: * Test szybkosci sumatora 4-bitowego - test dodawania A+B=S przy 100 MHz

C41: both pins shorted together -- ignoring.
Vshort: both pins shorted together -- ignoring.
Ignoring BSIM parameter XL
Ignoring BSIM parameter XW
Ignoring BSIM parameter XL
Ignoring BSIM parameter XW
WARNING: Less than two connections to node A1.  This node is used by RA1.
Warning: Pd = 0 is less than W.
Warning: Ps = 0 is less than W.
Warning: Pd = 0 is less than W.
Warning: Ps = 0 is less than W.
Warning: Pd = 0 is less than W.
Warning: Pd = 0 is less than W.
Warning: Ps = 0 is less than W.
Warning: Pd = 0 is less than W.
Warning: Ps = 0 is less than W.
Direct Newton iteration failed to find .op point.  (Use ".option noopiter" to skip.)
Starting Gmin stepping
Gmin = 10
Gmin = 1.07374
Gmin = 0.115292
Gmin = 0.0123794
Gmin = 0.00132923
Gmin = 0.000142725
Gmin = 1.5325e-005
Gmin = 1.6455e-006
Gmin = 1.76685e-007
Gmin = 1.89714e-008
Gmin = 2.03704e-009
Gmin = 2.18725e-010
Gmin = 2.34854e-011
Gmin = 2.52173e-012
Gmin = 2.70769e-013
Gmin = 0
Gmin stepping succeeded in finding the operating point.


Date: Sun Feb 07 18:42:43 2021
Total elapsed time: 2.776 seconds.

tnom = 27
temp = 27
method = modified trap
totiter = 3107
traniter = 2685
tranpoints = 1166
accept = 1133
rejected = 33
matrix size = 81
fillins = 54
solver = Normal
Thread vector: 154.6/15.9[16] 25.5/4.9[16] 9.1/2.9[16] 0.3/1.2[1]  2592/500
Matrix Compiler1: 13.17 KB object code size  3.3/1.6/[1.1]
Matrix Compiler2: 10.95 KB object code size  2.3/2.0/[0.6]

