Circuit: Test symulacyjny dla bramki AND

C1: both pins shorted together -- ignoring.
Vshort: both pins shorted together -- ignoring.
Ignoring BSIM parameter XL
Ignoring BSIM parameter XW
Ignoring BSIM parameter XL
Ignoring BSIM parameter XW
Warning: Pd = 0 is less than W.
Warning: Ps = 0 is less than W.
Warning: Pd = 0 is less than W.
Direct Newton iteration for .op point succeeded.

Date: Sun Feb 07 16:18:59 2021
Total elapsed time: 0.115 seconds.

tnom = 27
temp = 27
method = modified trap
totiter = 2595
traniter = 2587
tranpoints = 1198
accept = 1155
rejected = 43
matrix size = 9
fillins = 0
solver = Normal
Matrix Compiler1: 368 bytes object code size  0.1/0.1/[0.0]
Matrix Compiler2: 743 bytes object code size  0.1/0.1/[0.1]

