Circuit: Test symulacyjny dla bramki NOT

Vshort: both pins shorted together -- ignoring.
Ignoring BSIM parameter XL
Ignoring BSIM parameter XW
Ignoring BSIM parameter XL
Ignoring BSIM parameter XW
Direct Newton iteration for .op point succeeded.

Date: Mon Feb 01 21:41:40 2021
Total elapsed time: 0.162 seconds.

tnom = 27
temp = 27
method = modified trap
totiter = 2387
traniter = 2381
tranpoints = 1151
accept = 1117
rejected = 34
matrix size = 5
fillins = 0
solver = Normal
Matrix Compiler1: 132 bytes object code size  0.1/0.0/[0.0]
Matrix Compiler2: off  [0.0]/0.1/0.1

