Circuit: Test symulacyjny dla bramki OR

C2: both pins shorted together -- ignoring.
Vshort: both pins shorted together -- ignoring.
Ignoring BSIM parameter XL
Ignoring BSIM parameter XW
Ignoring BSIM parameter XL
Ignoring BSIM parameter XW
Warning: Pd = 0 is less than W.
Warning: Ps = 0 is less than W.
Warning: Pd = 0 is less than W.
Direct Newton iteration for .op point succeeded.

Date: Sun Feb 07 16:20:22 2021
Total elapsed time: 0.103 seconds.

tnom = 27
temp = 27
method = modified trap
totiter = 2451
traniter = 2440
tranpoints = 1167
accept = 1134
rejected = 33
matrix size = 9
fillins = 0
solver = Normal
Matrix Compiler1: 368 bytes object code size  0.1/0.4/[0.0]
Matrix Compiler2: 787 bytes object code size  0.1/0.1/[0.1]

